%chk=geometry.chk
%mem=4GB
%nprocshared=1

# B3LYP/sto-3g nosymm iop(2/12=3,3/33=1) guess=only pop=full

TitleMe

0 1
c           -0.7097297   0.0000400  -0.0005100
c           -0.0093800  -1.2191995  -0.0022400
c            1.3745795  -1.2203795  -0.0079000
c            2.1021692  -0.0000100  -0.0040000
c            1.3745895   1.2203395  -0.0078700
c           -0.0094000   1.2192395  -0.0021600
h           -0.5642098  -2.1741091  -0.0010400
h            1.9101792  -2.1817891  -0.0073400
h            1.9101092   2.1818291  -0.0073800
h           -0.5641498   2.1741691  -0.0008200
n            3.4790586  -0.0000300   0.0601800
h            3.9534384  -0.8448097  -0.1473199
h            3.9534284   0.8449097  -0.1467399
n           -2.1876291   0.0000000   0.0014600
o           -2.7734789   1.0513096   0.0016000
o           -2.7734889  -1.0513496   0.0018000
c           -0.7083521   0.0000366  -0.0005091
c           -0.0164201  -1.2220549  -0.0022464
c            1.3805914  -1.2222203  -0.0079706
c            2.0991463  -0.0000113  -0.0038997
c            1.3805983   1.2221847  -0.0079402
c           -0.0164354   1.2220947  -0.0021660
h           -0.5602531  -2.1718931  -0.0010056
h            1.9112512  -2.1800614  -0.0071756
h            1.9111838   2.1800757  -0.0072141
h           -0.5602059   2.1719660  -0.0007869
n            3.4776999  -0.0000296   0.0619527
h            3.9838212  -0.8933784  -0.1595883
h            3.9838034   0.8934745  -0.1589829
n           -2.1628271  -0.0000013   0.0014467
o           -2.7845848   1.0650789   0.0016078
o           -2.7845924  -1.0651167   0.0018103






