%oldchk=../GS_OLD/geometry.chk
%chk=geometry.chk
%nprocshared=4
%mem=5GB

# WB97XD/6-311G SCF=XQC FORCE nosym pop=full guess=read

MD Step 999

0 1
C  -0.33601080  -0.58100356  0.00670607 
H  0.22016236  -1.52810558  -0.02164713 
H  -1.42043619  -0.58634293  -0.02266039 
C  0.33220940  0.57615561  0.00480990 
H  -0.15573903  1.56565662  -0.02534378 
H  1.44456648  0.64981540  -0.02432053 








