%oldchk=../GS_OLD/geometry.chk
%chk=geometry.chk
%nprocshared=4
%mem=5GB

# WB97XD/6-311G SCF=XQC FORCE nosym pop=full guess=read

MD Step 999

0 1
C  -0.33488387  -0.57966631  0.00559583 
H  0.20588691  -1.53225787  -0.01863109 
H  -1.42088351  -0.60066170  -0.01974544 
C  0.33351404  0.57786074  0.00448837 
H  -0.17050594  1.56182670  -0.02058979 
H  1.44369931  0.63447536  -0.01931747 








