%oldchk=../GS_OLD/geometry.chk
%chk=geometry.chk
%nprocshared=4
%mem=5GB

# WB97XD/6-311G SCF=XQC FORCE nosym pop=full guess=read

MD Step 1000

0 1
C  -0.33555067  -0.58033852  0.00382989 
H  0.21000161  -1.53407480  -0.00970181 
H  -1.41967590  -0.59528281  -0.01019367 
C  0.33324182  0.57795406  0.00311192 
H  -0.16726828  1.55998542  -0.01105220 
H  1.44564630  0.63897237  -0.01058326 








