%oldchk=../GS_OLD/geometry.chk
%chk=geometry.chk
%nprocshared=24
%mem=5GB

# BLYP/6-31G* SCF=XQC FORCE nosym pop=full guess=read

MD Step 165

0 1
C  5.13343138  -0.60799332  0.50507843 
C  4.25430770  0.46930945  0.30317493 
C  2.95510892  0.26103753  -0.25369804 
C  2.59788279  -1.10694358  -0.54816687 
C  3.43966429  -2.17333823  -0.36405281 
C  4.75068278  -1.95805656  0.15078629 
C  1.97047621  1.28647529  -0.45278021 
C  0.36452973  -0.42149175  -1.21868478 
C  0.67009497  0.95900949  -0.93532195 
C  -0.38356890  1.92377480  -1.16990816 
H  -0.24344805  2.96000383  -0.99766110 
C  -1.62043518  1.50916779  -1.61328926 
C  -1.91756075  0.12776741  -1.88538620 
C  -0.86835909  -0.84194210  -1.67832910 
H  6.07761839  -0.40290803  0.93683997 
H  4.54553844  1.44978965  0.58378615 
H  3.07552934  -3.18782145  -0.60745653 
H  -2.41744673  2.23205679  -1.75423626 
H  -1.06116851  -1.89977308  -1.81261893 
N  -3.12159247  -0.28153377  -2.33466078 
N  5.60272914  -3.02069528  0.33567904 
P  -4.09990323  -0.77348583  1.39659614 
C  2.31146104  2.72397801  -0.12826605 
C  1.65183001  3.35724795  0.93479773 
C  3.34754298  3.39378678  -0.80104096 
C  1.99470138  4.65869373  1.28819555 
H  0.84334139  2.84019090  1.48407542 
C  3.67696025  4.70354799  -0.44913290 
H  3.87332879  2.92452225  -1.64871997 
C  3.03148912  5.32154837  0.62346251 
H  1.47912308  5.18001874  2.08657270 
H  4.43944779  5.25161134  -0.99711178 
H  3.29852798  6.32802259  0.89614611 
F  -2.88280260  -1.62295082  0.57917071 
F  -3.04819999  -0.50502872  2.64954338 
F  -3.54348164  0.64760552  0.64817246 
F  -5.28227860  0.08970010  2.15060353 
F  -4.62498472  -2.17122492  2.07883745 
F  -5.09424997  -1.01761321  0.06413279 
C  -4.25073671  0.68071546  -2.39606380 
H  -5.15775616  0.13334702  -2.77654329 
H  -4.50447104  1.05954978  -1.40665195 
H  -4.05104183  1.48167648  -3.09837734 
C  -3.40374756  -1.71801229  -2.48483685 
H  -4.39666393  -1.81906725  -3.00293619 
H  -2.65537362  -2.18909809  -3.11914020 
H  -3.48523191  -2.20426071  -1.50469556 
C  5.13221872  -4.38339991  0.07822638 
H  5.98908575  -5.05454012  0.30682598 
H  4.28471469  -4.65519715  0.75099863 
H  4.84242176  -4.49383479  -0.97952788 
C  6.91177252  -2.79183669  0.98968714 
H  6.81845869  -2.41954861  2.00231616 
H  7.48554015  -3.71869875  1.04091003 
H  7.51233831  -2.07139022  0.44723312 
O  1.32587684  -1.42668536  -1.04408087 








