%oldchk=../GS_OLD/geometry.chk
%chk=geometry.chk
%nprocshared=24
%mem=5GB

# BLYP/6-31G* SCF=XQC FORCE nosym pop=full guess=read

MD Step 165

0 1
C  5.13714515  -0.60674502  0.50528917 
C  4.25647346  0.46937032  0.30346729 
C  2.95698333  0.26283863  -0.25241124 
C  2.60021126  -1.10564922  -0.54695626 
C  3.44070035  -2.17235063  -0.36333229 
C  4.75334833  -1.95696532  0.15050412 
C  1.97234175  1.28634132  -0.45099316 
C  0.36365401  -0.41936299  -1.21810381 
C  0.67054904  0.96126739  -0.93426944 
C  -0.38401529  1.92486621  -1.16968997 
H  -0.25009837  2.96501834  -0.99755733 
C  -1.62000899  1.50971201  -1.61262305 
C  -1.91911816  0.13104656  -1.88494730 
C  -0.86986595  -0.83964142  -1.67783280 
H  6.08436327  -0.39578679  0.94074755 
H  4.54996789  1.45266387  0.58722645 
H  3.07754750  -3.18262998  -0.60256437 
H  -2.41750967  2.23173019  -1.75090855 
H  -1.06691005  -1.89279289  -1.80931394 
N  -3.12227621  -0.28030481  -2.33199223 
N  5.60373559  -3.02095980  0.33609040 
P  -4.10197921  -0.77473570  1.39659258 
C  2.31187383  2.72424184  -0.13038299 
C  1.65501272  3.35665514  0.93414957 
C  3.34957467  3.39242846  -0.80135117 
C  1.99663215  4.65877336  1.28783607 
H  0.84685069  2.84061336  1.48394694 
C  3.67971980  4.70306991  -0.45134024 
H  3.87618122  2.92406316  -1.64891895 
C  3.03322911  5.32160722  0.62119543 
H  1.48149143  5.18140314  2.08775995 
H  4.44302844  5.25159565  -1.00028674 
H  3.29924909  6.33025657  0.89168113 
F  -2.88488013  -1.62427553  0.57918810 
F  -3.04993854  -0.50631160  2.64981259 
F  -3.54534129  0.64637834  0.64799801 
F  -5.28389079  0.08864360  2.15113642 
F  -4.62691225  -2.17206615  2.07928978 
F  -5.09608682  -1.01855843  0.06434305 
C  -4.25141901  0.68215682  -2.39732689 
H  -5.15824686  0.13593323  -2.77511128 
H  -4.50758228  1.06155018  -1.40792807 
H  -4.05266458  1.48347786  -3.09992325 
C  -3.40162779  -1.71854186  -2.48516690 
H  -4.39158608  -1.82127333  -3.00288671 
H  -2.65245333  -2.18771041  -3.11681231 
H  -3.48614874  -2.20344151  -1.50536180 
C  5.13214752  -4.38387043  0.07774132 
H  5.98706024  -5.05509653  0.30676047 
H  4.28632559  -4.65138789  0.75078388 
H  4.84154702  -4.49059714  -0.97692771 
C  6.91287449  -2.79286284  0.98945450 
H  6.81951672  -2.41784112  2.00557351 
H  7.48706975  -3.72093267  1.04327662 
H  7.51620606  -2.07233545  0.44668061 
O  1.32696765  -1.42575285  -1.04283347 








