%oldchk=../GS_OLD/geometry.chk
%chk=geometry.chk
%nprocshared=24
%mem=5GB

# AM1/STO-5G SCF=XQC FORCE nosym pop=full guess=read

MD Step 5000

0 1
C  5.55065361  -1.45560838  0.33936927 
C  4.39437074  -0.76172019  0.75817732 
C  3.18821243  -0.84772610  0.07479905 
C  3.20453385  -1.64097231  -1.10505180 
C  4.28019284  -2.39327766  -1.54927754 
C  5.49539576  -2.24154310  -0.86854167 
C  2.00543707  -0.06937606  0.33598472 
C  0.97048216  -1.00920878  -1.68909131 
C  0.93573513  -0.10971823  -0.53572693 
C  -0.31535372  0.63930320  -0.33952206 
H  -0.46469431  1.34827219  0.47165392 
C  -1.35163398  0.42747090  -1.24389081 
C  -1.29757154  -0.53460754  -2.32158642 
C  -0.12382847  -1.32625818  -2.53967180 
H  6.51543600  -1.38214977  0.85625986 
H  4.37723369  -0.21229047  1.67999130 
H  3.98626332  -2.97518049  -2.42543323 
H  -2.38981113  0.82363300  -0.99414227 
H  -0.08366863  -2.19397391  -3.22163147 
N  -2.36571034  -0.73141986  -3.15163086 
N  6.70358287  -2.82237449  -1.38698106 
P  -4.87765460  1.60247734  1.21461471 
C  1.93230065  0.64069898  1.60378204 
C  0.90120047  0.35146018  2.53925676 
C  2.88935355  1.62323665  1.85778023 
C  0.96609386  1.04700808  3.73469307 
H  0.16158708  -0.42935257  2.30447865 
C  2.83798488  2.31314380  3.03912754 
H  3.70180790  1.81659627  1.10871931 
C  1.88779040  2.06175326  4.01983599 
H  0.14503077  0.82587025  4.46493461 
H  3.61323825  3.07375388  3.19349851 
H  1.84304352  2.59321692  4.97653717 
F  -4.30277103  2.81153667  0.44302722 
F  -3.43298911  1.08139122  1.34021481 
F  -4.86541611  2.35698473  2.55301193 
F  -5.38301494  0.25995511  1.78272787 
F  -4.85761655  0.86230025  -0.19883398 
F  -6.32918198  2.04978566  0.88795358 
C  -3.48193418  0.10809406  -2.94805010 
H  -3.95730728  -0.16017963  -1.93690508 
H  -3.17453586  1.19511726  -2.97695519 
H  -4.35739938  -0.06435868  -3.67471948 
C  -2.52887343  -1.95469458  -3.97331761 
H  -1.49992714  -2.47746580  -4.00727116 
H  -3.29188924  -2.67739923  -3.55777701 
H  -2.68167669  -1.47374548  -5.05596134 
C  6.66269322  -3.40941903  -2.68238406 
H  7.04060407  -4.47186458  -2.73042133 
H  5.69511286  -3.27077186  -3.18296962 
H  7.42245989  -2.83003941  -3.36053363 
C  7.92946683  -2.27336906  -0.88704351 
H  7.93933342  -1.17437717  -0.90893377 
H  8.25595866  -2.58319050  0.18244877 
H  8.75312292  -2.72648460  -1.53730428 
O  2.05540621  -1.83605431  -1.89297082 








