%oldchk=../GS_OLD/geometry.chk
%chk=geometry.chk
%nprocshared=4
%mem=5GB

# WB97XD/6-311G SCF=XQC FORCE nosym pop=full guess=read

MD Step 1000

0 1
C  -0.33634838  -0.58188693  0.00819262 
H  0.22162139  -1.53237692  -0.02932062 
H  -1.42303228  -0.58236283  -0.02991032 
C  0.33369329  0.57809120  0.00657758 
H  -0.15872474  1.56077594  -0.03359339 
H  1.44215822  0.64958123  -0.03280353 








