%oldchk=../GS_OLD/geometry.chk
%chk=geometry.chk
%nprocshared=24
%mem=5GB

# AM1/STO-5G SCF=XQC FORCE nosym pop=full guess=read

MD Step 4999

0 1
C  5.55101392  -1.45517481  0.33626618 
C  4.39218925  -0.76404332  0.75883291 
C  3.19021397  -0.84140183  0.08079691 
C  3.20358331  -1.64027744  -1.09858880 
C  4.27456736  -2.38990538  -1.55114846 
C  5.50676516  -2.24164239  -0.87058907 
C  2.00625118  -0.07265350  0.33880946 
C  0.96828647  -1.01079703  -1.68907471 
C  0.93959903  -0.11353912  -0.53701684 
C  -0.31402838  0.63746084  -0.33953529 
H  -0.46387605  1.37123114  0.49188538 
C  -1.34623400  0.42842271  -1.23867265 
C  -1.30156189  -0.52919937  -2.31999650 
C  -0.12939751  -1.31989516  -2.53859895 
H  6.52170867  -1.37552390  0.83854413 
H  4.37491970  -0.21403953  1.70346383 
H  3.98034176  -2.98962558  -2.41979756 
H  -2.41481321  0.80351579  -1.00838534 
H  -0.06732895  -2.20689341  -3.21727073 
N  -2.37044940  -0.73189505  -3.15862271 
N  6.70864635  -2.81765014  -1.39062087 
P  -4.88220364  1.60312414  1.21399954 
C  1.93033130  0.63565429  1.60027218 
C  0.90800700  0.34941933  2.54175278 
C  2.88773266  1.61704300  1.85719904 
C  0.96307048  1.05231763  3.73011949 
H  0.16710354  -0.41379826  2.30941792 
C  2.84066031  2.30570965  3.03666795 
H  3.71002680  1.81721583  1.10608550 
C  1.89085326  2.06058146  4.01783781 
H  0.14957001  0.83482570  4.48337047 
H  3.61698350  3.09591774  3.20341973 
H  1.85118994  2.58663995  4.97666897 
F  -4.30199582  2.81281648  0.44781705 
F  -3.43548563  1.07697536  1.33900208 
F  -4.86133812  2.35559802  2.54645475 
F  -5.38072100  0.26315618  1.77875565 
F  -4.85389066  0.85871483  -0.19902705 
F  -6.32879559  2.05312916  0.88796192 
C  -3.48352053  0.11535224  -2.94162708 
H  -3.96212356  -0.17938988  -1.98240320 
H  -3.17042923  1.17570735  -2.95405438 
H  -4.35501842  -0.07571316  -3.68689643 
C  -2.53256955  -1.95988978  -3.97356619 
H  -1.53696128  -2.49550358  -4.00232445 
H  -3.30400936  -2.67069622  -3.55729718 
H  -2.67456581  -1.48545117  -5.02234231 
C  6.66492942  -3.40715079  -2.67962544 
H  7.05535234  -4.48597056  -2.72445585 
H  5.69524502  -3.26136090  -3.20201807 
H  7.42468284  -2.82839455  -3.32299360 
C  7.92479482  -2.26853929  -0.88193139 
H  7.94542926  -1.20148201  -0.94243048 
H  8.21072510  -2.58001162  0.16631970 
H  8.73668473  -2.72922072  -1.52684945 
O  2.05507978  -1.83641406  -1.89086277 








