%oldchk=../GS_OLD/geometry.chk
%chk=geometry.chk
%nprocshared=4
%mem=5GB

# WB97XD/6-311G SCF=XQC FORCE nosym pop=full guess=read

MD Step 1000

0 1
C  -0.33557249  -0.58154509  0.00527362 
H  0.20933779  -1.52822101  -0.01526577 
H  -1.42083474  -0.59009698  -0.01638220 
C  0.33386998  0.57785456  0.00388181 
H  -0.17064836  1.56272016  -0.01876656 
H  1.44344484  0.64060199  -0.01766664 








