%oldchk=../GS_OLD/geometry.chk
%chk=geometry.chk
%nprocshared=4
%mem=5GB

# WB97XD/6-311G SCF=XQC FORCE nosym pop=full guess=read

MD Step 1000

0 1
C  -0.33662467  -0.58287162  0.00620430 
H  0.21907994  -1.52684656  -0.02019136 
H  -1.42166355  -0.58238513  -0.02055178 
C  0.33345394  0.57747957  0.00449604 
H  -0.16067333  1.56682684  -0.02192629 
H  1.44436000  0.64998248  -0.02150457 








