%oldchk=../GS_OLD/geometry.chk
%chk=geometry.chk
%nprocshared=4
%mem=5GB

# WB97XD/6-311G SCF=XQC FORCE nosym pop=full guess=read

MD Step 999

0 1
C  -0.33647385  -0.58234243  0.00710210 
H  0.21741700  -1.52855127  -0.02669909 
H  -1.42096861  -0.58225218  -0.02724346 
C  0.33275860  0.57613140  0.00564826 
H  -0.16019546  1.56814061  -0.03088206 
H  1.44479675  0.65344622  -0.03033041 








