%oldchk=../GS_OLD/geometry.chk
%chk=geometry.chk
%nprocshared=4
%mem=5GB

# WB97XD/6-311G SCF=XQC FORCE nosym pop=full guess=read

MD Step 1000

0 1
C  -0.33532265  -0.58060327  0.00636306 
H  0.20661809  -1.53331708  -0.02163073 
H  -1.41841746  -0.59119402  -0.02198186 
C  0.33355977  0.57741159  0.00459323 
H  -0.17015990  1.56098664  -0.02225889 
H  1.44568491  0.64429272  -0.02195571 








