%oldchk=../GS_OLD/geometry.chk
%chk=geometry.chk
%nprocshared=4
%mem=5GB

# WB97XD/6-311G SCF=XQC FORCE nosym pop=full guess=read

MD Step 999

0 1
C  -0.33706591  -0.58296795  0.00766246 
H  0.22952698  -1.52215485  -0.02544627 
H  -1.41990704  -0.57275850  -0.02572620 
C  0.33200277  0.57518109  0.00519846 
H  -0.14838759  1.57015657  -0.02964260 
H  1.44259431  0.66103314  -0.02894344 








