%chk=geometry.chk
%nprocshared=1
%mem=5GB

# BLYP/3-21G nosymm iop(2/12=3,3/33=1) guess=only pop=full

MD Step 158

0 1
C  -0.27866047  -0.62756189  0.14151988 
H  -0.26060391  -1.55989241  -0.59076823 
H  -1.25400583  -0.93638897  0.69972084 
C  0.38568889  0.75519773  -0.22364497 
H  -0.07996309  1.65474753  -0.48929760 
H  0.31799050  -0.68084354  1.35989262 
C  -0.27400519  -0.62586169  0.14836281 
H  -0.26687808  -1.55201715  -0.59871626 
H  -1.27306886  -0.93896664  0.68494287 
C  0.38475004  0.75933116  -0.22226671 
H  -0.06224675  1.66433480  -0.51163353 
H  0.33040796  -0.70767944  1.36913686 








