%oldchk=../GS_OLD/geometry.chk
%chk=geometry.chk
%nprocshared=4
%mem=5GB

# WB97XD/6-311G SCF=XQC FORCE nosym pop=full guess=read

MD Step 999

0 1
C  -0.33484976  -0.57929750  0.00668804 
H  0.20661634  -1.53089264  -0.02313739 
H  -1.41903344  -0.60379660  -0.02476238 
C  0.33320871  0.57786005  0.00557743 
H  -0.16822827  1.56566688  -0.02636939 
H  1.44753725  0.63349076  -0.02454572 








