%oldchk=../GS_OLD/geometry.chk
%chk=geometry.chk
%nprocshared=4
%mem=5GB

# WB97XD/6-311G SCF=XQC FORCE nosym pop=full guess=read

MD Step 1000

0 1
C  -0.33466681  -0.57931442  0.00442526 
H  0.20314921  -1.53563125  -0.01307639 
H  -1.42050265  -0.60197939  -0.01355691 
C  0.33395148  0.57866267  0.00392435 
H  -0.17270355  1.55690925  -0.01436098 
H  1.44299645  0.63287542  -0.01408808 








