%oldchk=../GS_OLD/geometry.chk
%chk=geometry.chk
%nprocshared=4
%mem=5GB

# WB97XD/6-311G SCF=XQC FORCE nosym pop=full guess=read

MD Step 1000

0 1
C  -0.33741291  -0.58360532  0.01073382 
H  0.22860004  -1.52343787  -0.04055581 
H  -1.41996050  -0.57263577  -0.04199044 
C  0.33224009  0.57614123  0.00705777 
H  -0.15018982  1.56526208  -0.04638165 
H  1.44166380  0.65822153  -0.04459759 








