%oldchk=../GS_OLD/geometry.chk
%chk=geometry.chk
%nprocshared=4
%mem=5GB

# WB97XD/6-311G SCF=XQC FORCE nosym pop=full guess=read

MD Step 999

0 1
C  -0.33637702  -0.58209984  0.01149766 
H  0.21847263  -1.52691844  -0.04657102 
H  -1.42121942  -0.58173123  -0.04767470 
C  0.33243202  0.57558856  0.00806444 
H  -0.15746484  1.56675769  -0.05224146 
H  1.44313895  0.65541098  -0.05068447 








