%oldchk=../GS_OLD/geometry.chk
%chk=geometry.chk
%nprocshared=4
%mem=5GB

# WB97XD/6-311G SCF=XQC FORCE nosym pop=full guess=read

MD Step 999

0 1
C  -0.33673846  -0.58240607  0.00873932 
H  0.22056324  -1.52271505  -0.02991952 
H  -1.41387923  -0.57626721  -0.03058744 
C  0.33193158  0.57490573  0.00557146 
H  -0.15822238  1.57139037  -0.03470791 
H  1.45019894  0.65834251  -0.03392828 








