%chk=geometry.chk
%nprocshared=1
%mem=5GB

# WB97XD/6-311G nosymm iop(2/12=3,3/33=1) guess=only pop=full

MD Step 1000

0 1
C  -0.26749684  -0.08072639  -0.03614803 
H  0.05106432  -1.12191401  -0.16431557 
H  -1.37170355  0.15678200  -0.25993580 
C  0.72022969  0.88821521  0.02142758 
H  0.32006224  1.89888203  -0.27237982 
H  1.79210441  0.54610851  -0.21064827 
C  -0.27003675  -0.08546663  -0.03439252 
H  0.05807867  -1.11772663  -0.15572286 
H  -1.36365347  0.17588947  -0.27978038 
C  0.72186284  0.89218922  0.02180105 
H  0.32332196  1.90135619  -0.26088867 
H  1.78731277  0.53626633  -0.22657284 








