%oldchk=../GS_OLD/geometry.chk
%chk=geometry.chk
%nprocshared=4
%mem=5GB

# WB97XD/6-311G SCF=XQC FORCE nosym pop=full guess=read

MD Step 999

0 1
C  -0.33658010  -0.58162201  0.00432427 
H  0.22258306  -1.52722086  -0.01158268 
H  -1.42162761  -0.58879526  -0.01236777 
C  0.33211751  0.57653673  0.00312059 
H  -0.15512448  1.56871483  -0.01379348 
H  1.44526176  0.64581591  -0.01305857 








