%oldchk=../GS_OLD/geometry.chk
%chk=geometry.chk
%nprocshared=4
%mem=5GB

# WB97XD/6-311G SCF=XQC FORCE nosym pop=full guess=read

MD Step 999

0 1
C  -0.33594657  -0.58106181  0.00725829 
H  0.21890094  -1.52562411  -0.02324103 
H  -1.41715726  -0.58597189  -0.02407206 
C  0.33277608  0.57670334  0.00569002 
H  -0.15816586  1.56741630  -0.02716109 
H  1.44761166  0.64953658  -0.02640347 








