%oldchk=../GS_OLD/geometry.chk
%chk=geometry.chk
%nprocshared=4
%mem=5GB

# WB97XD/6-311G SCF=XQC FORCE nosym pop=full guess=read

MD Step 1000

0 1
C  -0.33613911  -0.58180957  0.00599024 
H  0.21912253  -1.52806688  -0.01764663 
H  -1.42110670  -0.58298725  -0.01822462 
C  0.33298641  0.57692855  0.00408446 
H  -0.15913238  1.56365204  -0.02008800 
H  1.44333880  0.65022653  -0.01943893 








