%oldchk=../GS_OLD/geometry.chk
%chk=geometry.chk
%nprocshared=4
%mem=5GB

# WB97XD/6-311G SCF=XQC FORCE nosym pop=full guess=read

MD Step 1000

0 1
C  -0.33733845  -0.58348400  0.00788904 
H  0.22981090  -1.52325561  -0.02688613 
H  -1.42064768  -0.57220629  -0.02716770 
C  0.33256829  0.57621076  0.00545314 
H  -0.14943955  1.56664370  -0.03099590 
H  1.44078854  0.65915117  -0.03026678 








