%oldchk=../GS_OLD/geometry.chk
%chk=geometry.chk
%nprocshared=4
%mem=5GB

# WB97XD/6-311G SCF=XQC FORCE nosym pop=full guess=read

MD Step 1000

0 1
C  -0.33559772  -0.58120612  0.00575203 
H  0.20947656  -1.53414486  -0.02007830 
H  -1.42316457  -0.59156647  -0.02067821 
C  0.33387930  0.57809625  0.00449973 
H  -0.17045494  1.56056330  -0.02172700 
H  1.44321143  0.64078583  -0.02109126 








