%oldchk=../GS_OLD/geometry.chk
%chk=geometry.chk
%nprocshared=4
%mem=5GB

# WB97XD/6-311G SCF=XQC FORCE nosym pop=full guess=read

MD Step 1000

0 1
C  -0.33740546  -0.58280122  0.00728019 
H  0.22664649  -1.52532836  -0.02511876 
H  -1.42150539  -0.58481400  -0.02765859 
C  0.33255820  0.57735531  0.00539026 
H  -0.15306336  1.56646780  -0.03122911 
H  1.44427366  0.64713930  -0.02838610 








