%oldchk=../GS_OLD/geometry.chk
%chk=geometry.chk
%nprocshared=4
%mem=5GB

# WB97XD/6-311G SCF=XQC FORCE nosym pop=full guess=read

MD Step 999

0 1
C  -0.33465603  -0.57927315  0.00347118 
H  0.20362500  -1.53452050  -0.00755133 
H  -1.42076874  -0.60170055  -0.00804437 
C  0.33339767  0.57764672  0.00274425 
H  -0.17458407  1.56311632  -0.00874563 
H  1.44810289  0.63386689  -0.00833012 








