%oldchk=../GS_OLD/geometry.chk
%chk=geometry.chk
%nprocshared=4
%mem=5GB

# WB97XD/6-311G SCF=XQC FORCE nosym pop=full guess=read

MD Step 1000

0 1
C  -0.33606018  -0.58139910  0.00952774 
H  0.22212831  -1.52916374  -0.03511902 
H  -1.42488613  -0.58800645  -0.03725192 
C  0.33331836  0.57783013  0.00694556 
H  -0.15801432  1.56300480  -0.04019188 
H  1.43934378  0.64258900  -0.03782460 








