%oldchk=../GS_OLD/geometry.chk
%chk=geometry.chk
%nprocshared=4
%mem=5GB

# WB97XD/6-311G SCF=XQC FORCE nosym pop=full guess=read

MD Step 1000

0 1
C  -0.33664421  -0.58266904  0.01182509 
H  0.21848295  -1.52777988  -0.04869046 
H  -1.42213357  -0.58134984  -0.04982989 
C  0.33305720  0.57668404  0.00841942 
H  -0.15859028  1.56307325  -0.05418853 
H  1.44089883  0.65330091  -0.05259775 








