%oldchk=../GS_OLD/geometry.chk
%chk=geometry.chk
%nprocshared=4
%mem=5GB

# WB97XD/6-311G SCF=XQC FORCE nosym pop=full guess=read

MD Step 1000

0 1
C  -0.33666799  -0.58208808  0.00789684 
H  0.22716123  -1.52659489  -0.02726661 
H  -1.42507074  -0.58526610  -0.02933006 
C  0.33257397  0.57710312  0.00538199 
H  -0.15379072  1.56728501  -0.03122812 
H  1.44204906  0.64552608  -0.02885346 








