%oldchk=../GS_OLD/geometry.chk
%chk=geometry.chk
%nprocshared=4
%mem=5GB

# WB97XD/6-311G SCF=XQC FORCE nosym pop=full guess=read

MD Step 1000

0 1
C  -0.33685312  -0.58216928  0.00458247 
H  0.22261790  -1.52821920  -0.01322064 
H  -1.42261821  -0.58870225  -0.01402702 
C  0.33273571  0.57763232  0.00339795 
H  -0.15661580  1.56543076  -0.01538352 
H  1.44354081  0.64341681  -0.01460790 








