%oldchk=../GS_OLD/geometry.chk
%chk=geometry.chk
%nprocshared=4
%mem=5GB

# WB97XD/6-311G SCF=XQC FORCE nosym pop=full guess=read

MD Step 1000

0 1
C  -0.33541299  -0.58092326  0.00470509 
H  0.21051112  -1.53682360  -0.01524340 
H  -1.42671661  -0.59243267  -0.01590624 
C  0.33382551  0.57835100  0.00386552 
H  -0.16686799  1.55534466  -0.01743422 
H  1.43869155  0.64126050  -0.01683377 








