%oldchk=../GS_OLD/geometry.chk
%chk=geometry.chk
%nprocshared=4
%mem=5GB

# WB97XD/6-311G SCF=XQC FORCE nosym pop=full guess=read

MD Step 1000

0 1
C  -0.33535465  -0.58128551  0.00544178 
H  0.20497237  -1.53283693  -0.01653151 
H  -1.41856811  -0.58875972  -0.01734444 
C  0.33408502  0.57776374  0.00443908 
H  -0.17390806  1.56384578  -0.01890769 
H  1.44942426  0.64651278  -0.01816809 








