%oldchk=../GS_OLD/geometry.chk
%chk=geometry.chk
%nprocshared=4
%mem=5GB

# WB97XD/6-311G SCF=XQC FORCE nosym pop=full guess=read

MD Step 1000

0 1
C  -0.33577441  -0.58126471  0.00804356 
H  0.21064493  -1.53048714  -0.03193624 
H  -1.42101819  -0.59383960  -0.03313126 
C  0.33351291  0.57799630  0.00690356 
H  -0.16703237  1.56446891  -0.03633877 
H  1.44611112  0.64055774  -0.03496289 








