%oldchk=../GS_OLD/geometry.chk
%chk=geometry.chk
%nprocshared=4
%mem=5GB

# WB97XD/6-311G SCF=XQC FORCE nosym pop=full guess=read

MD Step 999

0 1
C  -0.33618220  -0.58306455  0.00562760 
H  0.22087762  -1.53033667  -0.01699197 
H  -1.42635617  -0.57330710  -0.01747741 
C  0.33325127  0.57627449  0.00379278 
H  -0.15917440  1.56683144  -0.01836739 
H  1.44102285  0.65916698  -0.01797558 








