%oldchk=../GS_OLD/geometry.chk
%chk=geometry.chk
%nprocshared=4
%mem=5GB

# WB97XD/6-311G SCF=XQC FORCE nosym pop=full guess=read

MD Step 1000

0 1
C  -0.33590918  -0.58134124  0.00543112 
H  0.21106344  -1.52947189  -0.01837318 
H  -1.42062743  -0.59578764  -0.01912636 
C  0.33364227  0.57829318  0.00459485 
H  -0.16789340  1.56578720  -0.02091158 
H  1.44551810  0.63683778  -0.02000372 








