%oldchk=../GS_OLD/geometry.chk
%chk=geometry.chk
%nprocshared=4
%mem=5GB

# WB97XD/6-311G SCF=XQC FORCE nosym pop=full guess=read

MD Step 1000

0 1
C  -0.33763934  -0.58472041  0.00946222 
H  0.22957051  -1.51901925  -0.03438885 
H  -1.42145904  -0.56773053  -0.03501640 
C  0.33237877  0.57539010  0.00576304 
H  -0.15184738  1.57211294  -0.03821826 
H  1.44292200  0.66231832  -0.03728428 








