%oldchk=../GS_OLD/geometry.chk
%chk=geometry.chk
%nprocshared=4
%mem=5GB

# WB97XD/6-311G SCF=XQC FORCE nosym pop=full guess=read

MD Step 1000

0 1
C  -0.33570983  -0.58039420  0.00813913 
H  0.21671061  -1.53342405  -0.02989308 
H  -1.42480733  -0.59713496  -0.03244771 
C  0.33392581  0.57912788  0.00685072 
H  -0.16309190  1.55891300  -0.03577747 
H  1.43972595  0.63401284  -0.03322455 








