%oldchk=../GS_OLD/geometry.chk
%chk=geometry.chk
%nprocshared=4
%mem=5GB

# WB97XD/6-311G SCF=XQC FORCE nosym pop=full guess=read

MD Step 999

0 1
C  -0.33561795  -0.58086219  0.00808734 
H  0.21415007  -1.52823719  -0.02929296 
H  -1.41836551  -0.59037752  -0.03038226 
C  0.33269949  0.57685158  0.00663019 
H  -0.16207944  1.56919143  -0.03376338 
H  1.45043754  0.64659319  -0.03255556 








