%oldchk=../GS_OLD/geometry.chk
%chk=geometry.chk
%nprocshared=4
%mem=5GB

# WB97XD/6-311G SCF=XQC FORCE nosym pop=full guess=read

MD Step 999

0 1
C  -0.33713431  -0.58301806  0.01034657 
H  0.22872158  -1.52255195  -0.03797169 
H  -1.41904640  -0.57302965  -0.03935423 
C  0.33161032  0.57507638  0.00662799 
H  -0.14868652  1.56870006  -0.04392628 
H  1.44364056  0.66031360  -0.04220645 








