%chk=geometry.chk
%mem=5GB
%nprocshared=1

# FREQ=saveNM B3LYP/6-311++G**

TitleMe

0 1
C          0.00000       -0.00000        0.66552
C          0.00000       -0.00000       -0.66552
H          0.00000        0.92412       -1.23897
H         -0.00000        0.92412        1.23897
H         -0.00000       -0.92412        1.23897
H         -0.00000       -0.92412       -1.23897






