%oldchk=../GS_OLD/geometry.chk
%chk=geometry.chk
%nprocshared=4
%mem=5GB

# WB97XD/6-311G SCF=XQC FORCE nosym pop=full guess=read

MD Step 999

0 1
C  -0.33533507  -0.58090300  0.00752279 
H  0.21056656  -1.53148514  -0.02777466 
H  -1.41986574  -0.58467168  -0.02784198 
C  0.33288351  0.57578936  0.00540776 
H  -0.16732122  1.56598911  -0.02930382 
H  1.44597137  0.65124420  -0.02902169 








