%oldchk=../GS_OLD/geometry.chk
%chk=geometry.chk
%nprocshared=4
%mem=5GB

# WB97XD/6-311G SCF=XQC FORCE nosym pop=full guess=read

MD Step 1000

0 1
C  -0.33515469  -0.57996616  0.00699799 
H  0.20639120  -1.53144140  -0.02500072 
H  -1.41974795  -0.60335168  -0.02667032 
C  0.33388900  0.57899815  0.00586895 
H  -0.16985104  1.56239568  -0.02806817 
H  1.44566847  0.63131352  -0.02620114 








