%oldchk=../GS_OLD/geometry.chk
%chk=geometry.chk
%nprocshared=4
%mem=5GB

# WB97XD/6-311G SCF=XQC FORCE nosym pop=full guess=read

MD Step 999

0 1
C  -0.33586975  -0.58211985  0.00722696 
H  0.21662434  -1.52394614  -0.02409680 
H  -1.41951401  -0.58046222  -0.02479781 
C  0.33298031  0.57590146  0.00547333 
H  -0.15895937  1.57027930  -0.02803676 
H  1.44350354  0.65543875  -0.02718318 








