%oldchk=../GS_OLD/geometry.chk
%chk=geometry.chk
%nprocshared=4
%mem=5GB

# WB97XD/6-311G SCF=XQC FORCE nosym pop=full guess=read

MD Step 999

0 1
C  -0.33583961  -0.58118748  0.00562921 
H  0.21858807  -1.52746574  -0.01542706 
H  -1.42011124  -0.58387170  -0.01597868 
C  0.33239213  0.57590142  0.00371728 
H  -0.15837523  1.56702494  -0.01798948 
H  1.44558119  0.65191141  -0.01737779 








