%oldchk=../GS_OLD/geometry.chk
%chk=geometry.chk
%nprocshared=4
%mem=5GB

# WB97XD/6-311G SCF=XQC FORCE nosym pop=full guess=read

MD Step 999

0 1
C  -0.33507375  -0.58111766  0.00646471 
H  0.20730169  -1.53163479  -0.02217882 
H  -1.42178328  -0.58767054  -0.02304587 
C  0.33349377  0.57684405  0.00504726 
H  -0.17048704  1.56458023  -0.02557399 
H  1.44542205  0.64725554  -0.02475872 








