%oldchk=../GS_OLD/geometry.chk
%chk=geometry.chk
%nprocshared=4
%mem=5GB

# WB97XD/6-311G SCF=XQC FORCE nosym pop=full guess=read

MD Step 999

0 1
C  -0.33670721  -0.58259757  0.00233523 
H  0.22162801  -1.52183656  0.00047332 
H  -1.41785394  -0.58212462  -0.00004599 
C  0.33215431  0.57592941  0.00164131 
H  -0.15676044  1.57445465  -0.00233390 
H  1.45109471  0.65281587  -0.00162217 








