%oldchk=../GS_OLD/geometry.chk
%chk=geometry.chk
%nprocshared=4
%mem=5GB

# WB97XD/6-311G SCF=XQC FORCE nosym pop=full guess=read

MD Step 1000

0 1
C  -0.33641980  -0.58356176  0.00593057 
H  0.22003261  -1.53172316  -0.01896166 
H  -1.42713890  -0.57378649  -0.01945454 
C  0.33396424  0.57750731  0.00412966 
H  -0.16162982  1.56300094  -0.02024686 
H  1.43937357  0.65602999  -0.01984160 








