%oldchk=../GS_OLD/geometry.chk
%chk=geometry.chk
%nprocshared=4
%mem=5GB

# WB97XD/6-311G SCF=XQC FORCE nosym pop=full guess=read

MD Step 999

0 1
C  -0.33593509  -0.58062327  0.00579641 
H  0.21499627  -1.52968092  -0.01925059 
H  -1.41832358  -0.59180343  -0.02006128 
C  0.33226391  0.57652417  0.00447706 
H  -0.16001641  1.56448220  -0.02229576 
H  1.44643489  0.64519680  -0.02147127 








