%oldchk=../GS_OLD/geometry.chk
%chk=geometry.chk
%nprocshared=4
%mem=5GB

# WB97XD/6-311G SCF=XQC FORCE nosym pop=full guess=read

MD Step 1000

0 1
C  -0.33601379  -0.58176237  0.00739691 
H  0.21341302  -1.53562766  -0.02842113 
H  -1.42481906  -0.58904701  -0.02899786 
C  0.33416407  0.57874320  0.00623434 
H  -0.16620053  1.55955120  -0.03135172 
H  1.44259645  0.64405274  -0.03070454 








