%oldchk=../GS_OLD/geometry.chk
%chk=geometry.chk
%nprocshared=4
%mem=5GB

# WB97XD/6-311G SCF=XQC FORCE nosym pop=full guess=read

MD Step 1000

0 1
C  -0.33751241  -0.58405219  0.00761807 
H  0.22874671  -1.51788150  -0.02546536 
H  -1.42017398  -0.57497792  -0.02665760 
C  0.33240148  0.57612732  0.00488989 
H  -0.14980333  1.57099054  -0.02912221 
H  1.44211646  0.65628255  -0.02781884 








