%oldchk=../GS_OLD/geometry.chk
%chk=geometry.chk
%nprocshared=4
%mem=5GB

# WB97XD/6-311G SCF=XQC FORCE nosym pop=full guess=read

MD Step 1000

0 1
C  -0.33762127  -0.58346345  0.00250207 
H  0.22501877  -1.52558087  -0.00240703 
H  -1.41914947  -0.57700745  -0.00282895 
C  0.33232988  0.57624414  0.00115345 
H  -0.15603791  1.56690237  -0.00292756 
H  1.44583311  0.65432646  -0.00277636 








