%oldchk=../GS_OLD/geometry.chk
%chk=geometry.chk
%nprocshared=4
%mem=5GB

# WB97XD/6-311G SCF=XQC FORCE nosym pop=full guess=read

MD Step 1000

0 1
C  -0.33663304  -0.58172011  0.00607309 
H  0.21697906  -1.53033288  -0.02059622 
H  -1.41869763  -0.58873315  -0.02098848 
C  0.33275423  0.57734170  0.00405436 
H  -0.16283576  1.56382450  -0.02172669 
H  1.44681514  0.64344583  -0.02131959 








