%oldchk=../GS_OLD/geometry.chk
%chk=geometry.chk
%nprocshared=24
%mem=5GB

# WB97XD/6-311G SCF=XQC FORCE nosym pop=full guess=read

MD Step 336

0 1
C  -0.35627532  -0.61551323  0.00365126 
H  0.31594127  -1.33252204  -0.00118931 
H  -1.32347456  -0.42497125  -0.02564841 
C  0.31733570  0.55707578  -0.00103329 
H  -0.09768004  1.69872507  0.02575053 
H  1.56913393  0.75518205  -0.02622599 








