%oldchk=../GS_OLD/geometry.chk
%chk=geometry.chk
%nprocshared=4
%mem=5GB

# WB97XD/6-311G SCF=XQC FORCE nosym pop=full guess=read

MD Step 1000

0 1
C  -0.33580195  -0.58151909  0.00851805 
H  0.21424465  -1.52669934  -0.02943019 
H  -1.42012155  -0.58929949  -0.03178509 
C  0.33343040  0.57756430  0.00659327 
H  -0.16337527  1.56639825  -0.03671152 
H  1.44536645  0.64458087  -0.03427310 








