%oldchk=../GS_OLD/geometry.chk
%chk=geometry.chk
%nprocshared=4
%mem=5GB

# WB97XD/6-311G SCF=XQC FORCE nosym pop=full guess=read

MD Step 999

0 1
C  -0.33675910  -0.58215334  0.00693496 
H  0.22644774  -1.52235881  -0.02248048 
H  -1.42105608  -0.58491616  -0.02462646 
C  0.33235197  0.57654967  0.00508655 
H  -0.15069654  1.56979159  -0.02696684 
H  1.44218090  0.64862038  -0.02481755 








