%oldchk=../GS_OLD/geometry.chk
%chk=geometry.chk
%nprocshared=1
%mem=5GB

# BLYP/STO-3G SCF=XQC FORCE nosym pop=full

MD Step 709

0 1
C  4.27238739  5.31318940  5.26077266 
C  5.74537426  5.34588914  5.30934358 
C  6.32977987  6.65282938  5.35661431 
C  5.71621409  7.91415004  5.35349578 
C  4.25176357  7.81329859  5.26673690 
C  3.51854517  6.57254101  5.34523730 
H  3.67994805  4.41280056  5.37664967 
H  6.34535481  4.64630434  4.75659347 
H  6.30144514  8.85709351  5.10708541 
H  3.63553937  8.69226515  4.98100854 
N  7.86443279  6.54270045  5.16165667 
H  8.35786765  6.03061862  6.02990572 
H  8.32098797  6.01377774  4.26918958 
N  2.04330918  6.67663065  5.06595086 
H  1.46871256  5.75578236  4.87865864 
H  1.57754172  7.07788545  6.09082015 








