%oldchk=../GS_OLD/geometry.chk
%chk=geometry.chk
%nprocshared=4
%mem=5GB

# WB97XD/6-311G SCF=XQC FORCE nosym pop=full guess=read

MD Step 1000

0 1
C  -0.33599396  -0.58048120  0.00838260 
H  0.21279743  -1.52902468  -0.03163830 
H  -1.41803281  -0.60000259  -0.03440017 
C  0.33298911  0.57809618  0.00656648 
H  -0.16569213  1.56572306  -0.03664069 
H  1.44849046  0.63347768  -0.03368696 








