%oldchk=../GS_OLD/geometry.chk
%chk=geometry.chk
%nprocshared=4
%mem=5GB

# WB97XD/6-311G SCF=XQC FORCE nosym pop=full guess=read

MD Step 999

0 1
C  -0.33705987  -0.58245012  0.00439541 
H  0.23219390  -1.52538385  -0.01047483 
H  -1.42445408  -0.57700379  -0.01171705 
C  0.33177149  0.57574625  0.00312382 
H  -0.14368891  1.56278466  -0.01562851 
H  1.43631780  0.65683874  -0.01442634 








