%oldchk=../GS_OLD/geometry.chk
%chk=geometry.chk
%nprocshared=4
%mem=5GB

# WB97XD/6-311G SCF=XQC FORCE nosym pop=full guess=read

MD Step 999

0 1
C  -0.33664142  -0.58178393  0.00388511 
H  0.22432754  -1.52845072  -0.00947621 
H  -1.42325697  -0.58417575  -0.01018143 
C  0.33206657  0.57607693  0.00258173 
H  -0.15153175  1.56435045  -0.01148730 
H  1.44002310  0.65132987  -0.01085832 








