%oldchk=../GS_OLD/geometry.chk
%chk=geometry.chk
%nprocshared=4
%mem=5GB

# WB97XD/6-311G SCF=XQC FORCE nosym pop=full guess=read

MD Step 999

0 1
C  -0.33543759  -0.57988662  0.00763844 
H  0.21746936  -1.53224434  -0.02671821 
H  -1.42431088  -0.59662509  -0.02922694 
C  0.33324304  0.57791884  0.00633080 
H  -0.16093453  1.56278740  -0.03276116 
H  1.44141252  0.63701481  -0.03026769 








