%oldchk=../GS_OLD/geometry.chk
%chk=geometry.chk
%nprocshared=4
%mem=5GB

# WB97XD/6-311G SCF=XQC FORCE nosym pop=full guess=read

MD Step 1000

0 1
C  -0.33597636  -0.58084209  0.00585758 
H  0.21563116  -1.53511875  -0.01984898 
H  -1.42485179  -0.59537318  -0.02091127 
C  0.33388619  0.57886291  0.00496106 
H  -0.16468153  1.56005066  -0.02301542 
H  1.44208843  0.63729674  -0.02187824 








