%oldchk=../GS_OLD/geometry.chk
%chk=geometry.chk
%nprocshared=4
%mem=5GB

# WB97XD/6-311G SCF=XQC FORCE nosym pop=full guess=read

MD Step 1000

0 1
C  -0.33739321  -0.58321313  0.00425703 
H  0.23171464  -1.52478894  -0.01007697 
H  -1.42566175  -0.57811161  -0.01104878 
C  0.33245764  0.57670620  0.00256904 
H  -0.14786366  1.56394327  -0.01274431 
H  1.43629482  0.65217402  -0.01178613 








