%oldchk=../GS_OLD/geometry.chk
%chk=geometry.chk
%nprocshared=4
%mem=5GB

# WB97XD/6-311G SCF=XQC FORCE nosym pop=full guess=read

MD Step 999

0 1
C  -0.33576026  -0.57995476  0.00553714 
H  0.21757500  -1.52576422  -0.01687041 
H  -1.42156128  -0.60341526  -0.01988147 
C  0.33261960  0.57777167  0.00477826 
H  -0.15761397  1.56731163  -0.02223340 
H  1.44391562  0.63276272  -0.01904547 








