%oldchk=../GS_OLD/geometry.chk
%chk=geometry.chk
%nprocshared=4
%mem=5GB

# WB97XD/6-311G SCF=XQC FORCE nosym pop=full guess=read

MD Step 1000

0 1
C  -0.33686606  -0.58226172  0.00424712 
H  0.22398743  -1.52984743  -0.01181531 
H  -1.42437798  -0.58428817  -0.01254259 
C  0.33273730  0.57722904  0.00298363 
H  -0.15339525  1.56036686  -0.01380670 
H  1.43785422  0.64860965  -0.01311920 








