%oldchk=../GS_OLD/geometry.chk
%chk=geometry.chk
%nprocshared=4
%mem=5GB

# WB97XD/6-311G SCF=XQC FORCE nosym pop=full guess=read

MD Step 1000

0 1
C  -0.33623069  -0.58157189  0.00713017 
H  0.21355349  -1.53044051  -0.02635403 
H  -1.42123703  -0.59236503  -0.02774779 
C  0.33342493  0.57801048  0.00542648 
H  -0.16538250  1.56231958  -0.02990038 
H  1.44364687  0.64008898  -0.02846092 








