%oldchk=../GS_OLD/geometry.chk
%chk=geometry.chk
%nprocshared=4
%mem=5GB

# WB97XD/6-311G SCF=XQC FORCE nosym pop=full guess=read

MD Step 1000

0 1
C  -0.33738079  -0.58376922  0.00836640 
H  0.22573026  -1.52330488  -0.02970620 
H  -1.42022078  -0.57556284  -0.03035532 
C  0.33268970  0.57674521  0.00555576 
H  -0.15163825  1.56558504  -0.03329389 
H  1.44220813  0.65714745  -0.03236471 








