%oldchk=../GS_OLD/geometry.chk
%chk=geometry.chk
%nprocshared=4
%mem=5GB

# WB97XD/6-311G SCF=XQC FORCE nosym pop=full guess=read

MD Step 999

0 1
C  -0.33571971  -0.58085165  0.00586791 
H  0.22367878  -1.53011385  -0.01557714 
H  -1.42431272  -0.58465658  -0.01677159 
C  0.33284776  0.57682360  0.00414547 
H  -0.15602865  1.56545454  -0.01887123 
H  1.44117861  0.64760602  -0.01782363 








