%oldchk=../GS_OLD/geometry.chk
%chk=geometry.chk
%nprocshared=4
%mem=5GB

# WB97XD/6-311G SCF=XQC FORCE nosym pop=full guess=read

MD Step 1000

0 1
C  -0.33642947  -0.58195245  0.00614382 
H  0.21301385  -1.52670853  -0.02214517 
H  -1.41707144  -0.59069611  -0.02270359 
C  0.33280464  0.57730931  0.00485173 
H  -0.16443951  1.56645351  -0.02511194 
H  1.44846174  0.64304765  -0.02428802 








