%oldchk=../GS_OLD/geometry.chk
%chk=geometry.chk
%nprocshared=4
%mem=5GB

# WB97XD/6-311G SCF=XQC FORCE nosym pop=full guess=read

MD Step 1000

0 1
C  -0.33582817  -0.58142627  0.00838165 
H  0.21375079  -1.52925898  -0.03117565 
H  -1.41994216  -0.59049334  -0.03233153 
C  0.33341212  0.57802172  0.00692582 
H  -0.16400444  1.56569474  -0.03546765 
H  1.44819130  0.64384535  -0.03420935 








