%oldchk=../GS_OLD/geometry.chk
%chk=geometry.chk
%nprocshared=4
%mem=5GB

# WB97XD/6-311G SCF=XQC FORCE nosym pop=full guess=read

MD Step 999

0 1
C  -0.33715162  -0.58276064  0.00390541 
H  0.23114654  -1.52309517  -0.00771713 
H  -1.42395931  -0.57826690  -0.00866937 
C  0.33186580  0.57562419  0.00216897 
H  -0.14699122  1.56804490  -0.01039471 
H  1.43889328  0.65446692  -0.00948628 








