%oldchk=../GS_OLD/geometry.chk
%chk=geometry.chk
%nprocshared=4
%mem=5GB

# WB97XD/6-311G SCF=XQC FORCE nosym pop=full guess=read

MD Step 999

0 1
C  -0.33585145  -0.58132364  0.00704115 
H  0.21452608  -1.53373576  -0.02610399 
H  -1.42321928  -0.58810161  -0.02663958 
C  0.33337175  0.57742623  0.00586039 
H  -0.16344724  1.56381206  -0.02921399 
H  1.44484021  0.64762270  -0.02861945 








