%oldchk=../GS_OLD/geometry.chk
%chk=geometry.chk
%nprocshared=4
%mem=5GB

# WB97XD/6-311G SCF=XQC FORCE nosym pop=full guess=read

MD Step 999

0 1
C  -0.33703261  -0.58307059  0.00962000 
H  0.22645513  -1.52061036  -0.03365634 
H  -1.41894118  -0.57885819  -0.03523983 
C  0.33284645  0.57655812  0.00718910 
H  -0.15080557  1.57303200  -0.04055135 
H  1.44541578  0.65627694  -0.03860005 








