6
geometry.out	Energy:  -49314.3741941
C          0.00000       -0.00000        0.66552
C          0.00000       -0.00000       -0.66552
H          0.00000        0.92412       -1.23897
H         -0.00000        0.92412        1.23897
H         -0.00000       -0.92412        1.23897
H         -0.00000       -0.92412       -1.23897
