%oldchk=../GS_OLD/geometry.chk
%chk=geometry.chk
%nprocshared=4
%mem=5GB

# WB97XD/6-311G SCF=XQC FORCE nosym pop=full guess=read

MD Step 1000

0 1
C  -0.33615151  -0.58160835  0.00730817 
H  0.21720406  -1.53322685  -0.02792480 
H  -1.42667839  -0.58896008  -0.02894607 
C  0.33332131  0.57769287  0.00533286 
H  -0.16160498  1.55851971  -0.03074604 
H  1.43803321  0.64355501  -0.02977712 








