%oldchk=../GS_OLD/geometry.chk
%chk=geometry.chk
%nprocshared=4
%mem=5GB

# WB97XD/6-311G SCF=XQC FORCE nosym pop=full guess=read

MD Step 999

0 1
C  -0.33554652  -0.58059868  0.00790822 
H  0.21232741  -1.53012176  -0.02995193 
H  -1.42021023  -0.59342246  -0.03112877 
C  0.33284304  0.57699436  0.00621306 
H  -0.16303538  1.56534443  -0.03340183 
H  1.44500692  0.64303204  -0.03190470 








