%oldchk=../GS_OLD/geometry.chk
%chk=geometry.chk
%nprocshared=4
%mem=5GB

# WB97XD/6-311G SCF=XQC FORCE nosym pop=full guess=read

MD Step 1000

0 1
C  -0.33696723  -0.58346972  0.00393797 
H  0.22522173  -1.51922610  -0.00536919 
H  -1.42042900  -0.57776667  -0.00617075 
C  0.33285697  0.57650333  0.00218875 
H  -0.15552336  1.57208216  -0.00874165 
H  1.44431200  0.65252392  -0.00810507 








