%oldchk=../GS_OLD/geometry.chk
%chk=geometry.chk
%nprocshared=4
%mem=5GB

# WB97XD/6-311G SCF=XQC FORCE nosym pop=full guess=read

MD Step 1000

0 1
C  -0.33694446  -0.58301346  0.00494585 
H  0.22459260  -1.52711193  -0.01326013 
H  -1.42202559  -0.57720357  -0.01372524 
C  0.33297627  0.57695906  0.00339162 
H  -0.15301224  1.56309928  -0.01524471 
H  1.44020513  0.65582227  -0.01463963 








