%oldchk=../GS_OLD/geometry.chk
%chk=geometry.chk
%nprocshared=4
%mem=5GB

# WB97XD/6-311G SCF=XQC FORCE nosym pop=full guess=read

MD Step 1000

0 1
C  -0.33815540  -0.58525211  0.00686270 
H  0.23784442  -1.52048029  -0.02043236 
H  -1.42553709  -0.56531615  -0.02166521 
C  0.33275065  0.57608122  0.00443598 
H  -0.14734549  1.57558528  -0.02506253 
H  1.44319753  0.66324242  -0.02371833 








