%oldchk=../GS_OLD/geometry.chk
%chk=geometry.chk
%nprocshared=4
%mem=5GB

# WB97XD/6-311G SCF=XQC FORCE nosym pop=full guess=read

MD Step 999

0 1
C  -0.33787415  -0.58477949  0.00656055 
H  0.23799947  -1.51877422  -0.01844987 
H  -1.42447193  -0.56463500  -0.01968479 
C  0.33209124  0.57485284  0.00408396 
H  -0.14517491  1.57892618  -0.02317661 
H  1.44423126  0.66643825  -0.02185373 








