%oldchk=../GS_OLD/geometry.chk
%chk=geometry.chk
%nprocshared=4
%mem=5GB

# WB97XD/6-311G SCF=XQC FORCE nosym pop=full guess=read

MD Step 1000

0 1
C  -0.33616288  -0.58156593  0.00412275 
H  0.21414918  -1.53587459  -0.01123901 
H  -1.42210788  -0.58735225  -0.01110663 
C  0.33355006  0.57816139  0.00350626 
H  -0.16558804  1.55914610  -0.01351324 
H  1.44597770  0.64595815  -0.01373139 








