%oldchk=../GS_OLD/geometry.chk
%chk=geometry.chk
%nprocshared=24
%mem=30GB

# BLYP/6-31G* SCF=XQC FORCE nosym pop=full guess=read

MD Step 999

0 1
C  11.38235126  6.43168209  8.10724009 
C  10.45426963  7.43899626  7.90038851 
C  9.29515930  7.20862248  7.10056754 
C  9.16652486  5.87688183  6.57942763 
C  10.06365404  4.86501889  6.78796463 
C  11.22164305  5.11493460  7.58066059 
C  8.28419807  8.19595215  6.77949543 
C  7.08541862  6.45229610  5.49526773 
C  7.20171340  7.80684318  5.98266379 
C  6.13473937  8.69047844  5.59854831 
H  6.15617897  9.75769291  5.90845056 
C  5.06981941  8.24298386  4.85508359 
C  4.96900617  6.85881408  4.39971710 
C  6.04277998  5.96490010  4.72558402 
H  12.24138059  6.64941629  8.68284722 
H  10.60139517  8.41315110  8.35358727 
H  9.85315646  3.88707725  6.41608496 
H  4.28251888  8.95559266  4.60108525 
H  6.05858710  4.86809003  4.51772607 
N  3.88652760  6.42336292  3.67580718 
N  12.14489172  4.15227696  7.86774856 
P  2.29227279  4.93759978  6.82644832 
C  8.35803516  9.58630221  7.37150656 
C  7.36839355  10.01405999  8.30836941 
C  9.38714281  10.48127840  6.97012649 
C  7.48796432  11.29625685  8.91386384 
H  6.55625740  9.31392160  8.54733196 
C  9.49323218  11.75361891  7.57118433 
H  10.06162910  10.13585708  6.20726323 
C  8.51700631  12.17780425  8.50876072 
H  6.72536619  11.55629889  9.62196856 
H  10.29931916  12.39842057  7.24718983 
H  8.56681176  13.16047313  8.93232503 
F  3.76272985  4.44428611  6.24140747 
F  2.92257433  5.00645609  8.32168070 
F  2.76274850  6.50527372  6.57715812 
F  0.84528281  5.46684482  7.34811888 
F  1.85557072  3.38467793  7.03468777 
F  1.70563739  4.89112335  5.28915537 
C  2.62588296  7.20346449  3.69811494 
H  1.83443134  6.48695669  3.43797750 
H  2.41795593  7.60141062  4.72099742 
H  2.67580164  8.00042003  2.94426387 
C  3.85866122  5.05088077  3.17301174 
H  3.09622382  4.98378661  2.43795630 
H  4.78545311  4.75067190  2.64648990 
H  3.68796432  4.29039254  3.95749042 
C  11.93168989  2.80241475  7.36302887 
H  12.81232553  2.16725803  7.66567726 
H  11.03275869  2.31197267  7.81039169 
H  11.83745343  2.72861562  6.24183871 
C  13.26514846  4.43538904  8.79683246 
H  12.83703216  4.83162936  9.74757706 
H  13.74136155  3.47690294  8.93433242 
H  13.93385507  5.19420272  8.33433607 
O  8.07485272  5.53504303  5.79079680 








