%oldchk=../GS_OLD/geometry.chk
%chk=geometry.chk
%nprocshared=4
%mem=5GB

# WB97XD/6-311G SCF=XQC FORCE nosym pop=full guess=read

MD Step 999

0 1
C  -0.33495928  -0.57997039  0.00398859 
H  0.20806718  -1.53681089  -0.01049366 
H  -1.42534206  -0.59930872  -0.01151773 
C  0.33354862  0.57796899  0.00329719 
H  -0.17058024  1.56472132  -0.01257313 
H  1.44536474  0.63593306  -0.01153146 








