%oldchk=../GS_OLD/geometry.chk
%chk=geometry.chk
%nprocshared=4
%mem=5GB

# WB97XD/6-311G SCF=XQC FORCE nosym pop=full guess=read

MD Step 1000

0 1
C  -0.33613609  -0.58261359  0.00758542 
H  0.21653389  -1.52544221  -0.02639351 
H  -1.42044552  -0.58049106  -0.02709654 
C  0.33362563  0.57706227  0.00585052 
H  -0.16072868  1.56650561  -0.03014838 
H  1.44174463  0.65275421  -0.02927627 








