%oldchk=../GS_OLD/geometry.chk
%chk=geometry.chk
%nprocshared=4
%mem=5GB

# WB97XD/6-311G SCF=XQC FORCE nosym pop=full guess=read

MD Step 999

0 1
C  -0.33438615  -0.57871022  0.00414137 
H  0.20356373  -1.53482892  -0.01133346 
H  -1.41979543  -0.60212672  -0.01178860 
C  0.33328745  0.57753077  0.00364825 
H  -0.17079155  1.56018412  -0.01272069 
H  1.44462164  0.63532438  -0.01247614 








