%oldchk=../GS_OLD/geometry.chk
%chk=geometry.chk
%nprocshared=4
%mem=5GB

# WB97XD/6-311G SCF=XQC FORCE nosym pop=full guess=read

MD Step 999

0 1
C  -0.33668070  -0.58214317  0.00422144 
H  0.22555697  -1.52608143  -0.00941523 
H  -1.42132816  -0.57854813  -0.01021090 
C  0.33215621  0.57568174  0.00282562 
H  -0.15280735  1.56630120  -0.01242500 
H  1.44284531  0.65568045  -0.01155402 








