%chk=geometry.chk
%mem=4GB
%nprocshared=1

# FORCE TD=(singlets,root=2,nstates=5) BLYP/STO-3G nosymm pop=full 

TitleMe

0 1
c           -0.7083521   0.0000366  -0.0005091
c           -0.0164201  -1.2220549  -0.0022464
c            1.3805914  -1.2222203  -0.0079706
c            2.0991463  -0.0000113  -0.0038997
c            1.3805983   1.2221847  -0.0079402
c           -0.0164354   1.2220947  -0.0021660
h           -0.5602531  -2.1718931  -0.0010056
h            1.9112512  -2.1800614  -0.0071756
h            1.9111838   2.1800757  -0.0072141
h           -0.5602059   2.1719660  -0.0007869
n            3.4776999  -0.0000296   0.0619527
h            3.9838212  -0.8933784  -0.1595883
h            3.9838034   0.8934745  -0.1589829
n           -2.1628271  -0.0000013   0.0014467
o           -2.7845848   1.0650789   0.0016078
o           -2.7845924  -1.0651167   0.0018103




