%oldchk=../GS_OLD/geometry.chk
%chk=geometry.chk
%nprocshared=4
%mem=5GB

# WB97XD/6-311G SCF=XQC FORCE nosym pop=full guess=read

MD Step 999

0 1
C  -0.33581402  -0.58032453  0.00444333 
H  0.21654152  -1.53185776  -0.01023311 
H  -1.42000255  -0.59467477  -0.01055689 
C  0.33331652  0.57805384  0.00388418 
H  -0.16114846  1.56554040  -0.01272717 
H  1.44775848  0.64144994  -0.01231079 








