%oldchk=../GS_OLD/geometry.chk
%chk=geometry.chk
%nprocshared=4
%mem=5GB

# WB97XD/6-311G SCF=XQC FORCE nosym pop=full guess=read

MD Step 1000

0 1
C  -0.33670123  -0.58280231  0.00743685 
H  0.21669168  -1.53038311  -0.02881481 
H  -1.42203590  -0.58283164  -0.02937946 
C  0.33347472  0.57737792  0.00601157 
H  -0.16283964  1.56447796  -0.03283909 
H  1.44358711  0.65032400  -0.03226227 








