%oldchk=../GS_OLD/geometry.chk
%chk=geometry.chk
%nprocshared=4
%mem=5GB

# WB97XD/6-311G SCF=XQC FORCE nosym pop=full guess=read

MD Step 1000

0 1
C  -0.33646196  -0.58278956  0.00808231 
H  0.21739887  -1.52655760  -0.02987336 
H  -1.42019166  -0.58016464  -0.03051444 
C  0.33306687  0.57677933  0.00611468 
H  -0.16213237  1.56716519  -0.03401415 
H  1.44705904  0.65286084  -0.03309480 








