%oldchk=../GS_OLD/geometry.chk
%chk=geometry.chk
%nprocshared=4
%mem=5GB

# WB97XD/6-311G SCF=XQC FORCE nosym pop=full guess=read

MD Step 999

0 1
C  -0.33636673  -0.58159657  0.00523909 
H  0.22594252  -1.52655517  -0.01409359 
H  -1.42216423  -0.58436907  -0.01556201 
C  0.33225958  0.57662337  0.00421016 
H  -0.15152521  1.56772006  -0.01879311 
H  1.44346928  0.64925136  -0.01736108 








