%oldchk=../GS_OLD/geometry.chk
%chk=geometry.chk
%nprocshared=4
%mem=5GB

# WB97XD/6-311G SCF=XQC FORCE nosym pop=full guess=read

MD Step 999

0 1
C  -0.33773020  -0.58344039  0.00549063 
H  0.23302057  -1.52478320  -0.01749768 
H  -1.42448685  -0.57612031  -0.01822555 
C  0.33187229  0.57585874  0.00379742 
H  -0.14514178  1.56695479  -0.02146513 
H  1.43936712  0.65723929  -0.02054148 








