%oldchk=../GS_OLD/geometry.chk
%chk=geometry.chk
%nprocshared=4
%mem=5GB

# WB97XD/6-311G SCF=XQC FORCE nosym pop=full guess=read

MD Step 1000

0 1
C  -0.33625608  -0.58107992  0.00945661 
H  0.22366445  -1.53148056  -0.03381806 
H  -1.42287893  -0.58762707  -0.03621233 
C  0.33293610  0.57777917  0.00699272 
H  -0.15594950  1.56159405  -0.04053255 
H  1.44197221  0.64408900  -0.03819839 








