%oldchk=../GS_OLD/geometry.chk
%chk=geometry.chk
%nprocshared=4
%mem=5GB

# WB97XD/6-311G SCF=XQC FORCE nosym pop=full guess=read

MD Step 999

0 1
C  -0.33614873  -0.58201278  0.00613689 
H  0.21981763  -1.52651634  -0.01930813 
H  -1.42183566  -0.58135546  -0.01996716 
C  0.33271394  0.57608825  0.00435960 
H  -0.15736501  1.56675916  -0.02277410 
H  1.44118363  0.65258472  -0.02215168 








