%oldchk=../GS_OLD/geometry.chk
%chk=geometry.chk
%nprocshared=4
%mem=5GB

# WB97XD/6-311G SCF=XQC FORCE nosym pop=full guess=read

MD Step 999

0 1
C  -0.33711355  -0.58315974  0.00804476 
H  0.22571637  -1.52273833  -0.02762776 
H  -1.41924657  -0.57610733  -0.02822951 
C  0.33207470  0.57571697  0.00520786 
H  -0.15041897  1.56876702  -0.03131465 
H  1.44430818  0.65906924  -0.03043413 








