%oldchk=../GS_OLD/geometry.chk
%chk=geometry.chk
%nprocshared=4
%mem=5GB

# WB97XD/6-311G SCF=XQC FORCE nosym pop=full guess=read

MD Step 999

0 1
C  -0.33607175  -0.58144398  0.00466210 
H  0.21839385  -1.53182440  -0.01340206 
H  -1.42278707  -0.58369638  -0.01357211 
C  0.33281535  0.57649425  0.00338476 
H  -0.16047310  1.56302741  -0.01495732 
H  1.44271536  0.65054464  -0.01489248 








