%oldchk=../GS_OLD/geometry.chk
%chk=geometry.chk
%nprocshared=4
%mem=5GB

# WB97XD/6-311G SCF=XQC FORCE nosym pop=full guess=read

MD Step 1000

0 1
C  -0.33694316  -0.58272468  0.00455380 
H  0.22530607  -1.52696684  -0.01152064 
H  -1.42236157  -0.57844276  -0.01234486 
C  0.33283292  0.57681161  0.00318181 
H  -0.15467623  1.56301294  -0.01446234 
H  1.44099525  0.65314743  -0.01354920 








