%oldchk=../GS_OLD/geometry.chk
%chk=geometry.chk
%nprocshared=4
%mem=5GB

# WB97XD/6-311G SCF=XQC FORCE nosym pop=full guess=read

MD Step 999

0 1
C  -0.33853187  -0.58579624  0.00584563 
H  0.23546955  -1.50950620  -0.01513254 
H  -1.41597212  -0.56485967  -0.01661997 
C  0.33170905  0.57497329  0.00339747 
H  -0.14024788  1.57618976  -0.01978092 
H  1.44245262  0.66753339  -0.01820028 








