%oldchk=../GS_OLD/geometry.chk
%chk=geometry.chk
%nprocshared=4
%mem=5GB

# WB97XD/6-311G SCF=XQC FORCE nosym pop=full guess=read

MD Step 999

0 1
C  -0.33682214  -0.58172889  0.00081179 
H  0.23506933  -1.52287039  0.01035700 
H  -1.42545639  -0.58511843  0.00966548 
C  0.33213958  0.57681705  0.00040389 
H  -0.14191861  1.56820826  0.00774054 
H  1.43867412  0.64886591  0.00832560 








