%oldchk=../GS_OLD/geometry.chk
%chk=geometry.chk
%nprocshared=4
%mem=5GB

# WB97XD/6-311G SCF=XQC FORCE nosym pop=full guess=read

MD Step 1000

0 1
C  -0.33536482  -0.58174021  0.00690918 
H  0.20693811  -1.53245709  -0.02504667 
H  -1.42268311  -0.58768835  -0.02593271 
C  0.33417351  0.57799745  0.00552982 
H  -0.17244934  1.56148545  -0.02835903 
H  1.44376296  0.64461122  -0.02751883 








