%chk=geometry.chk
%nprocshared=1
%mem=5GB

# BLYP/STO-3G nosymm iop(2/12=3,3/33=1) guess=only pop=full

MD Step 709

0 1
C  4.26557159  5.30855187  5.25616141 
C  5.73827103  5.33098210  5.30056697 
C  6.33678112  6.65008673  5.34351191 
C  5.70164652  7.90266661  5.34254897 
C  4.23709439  7.80507717  5.26916300 
C  3.51813329  6.57228795  5.33194547 
H  3.67836106  4.38455709  5.36331170 
H  6.34079147  4.63163601  4.75738188 
H  6.26815780  8.82936104  5.08617641 
H  3.63717699  8.68807966  4.95625635 
N  7.85679962  6.53356186  5.15679206 
H  8.34468360  6.03472640  6.01024799 
H  8.30343254  6.00704082  4.29000978 
N  2.03180505  6.67045521  5.06413700 
H  1.46741312  5.76260558  4.83836360 
H  1.56142732  7.06356363  6.05564772 
C  4.27238739  5.31318940  5.26077266 
C  5.74537426  5.34588914  5.30934358 
C  6.32977987  6.65282938  5.35661431 
C  5.71621409  7.91415004  5.35349578 
C  4.25176357  7.81329859  5.26673690 
C  3.51854517  6.57254101  5.34523730 
H  3.67994805  4.41280056  5.37664967 
H  6.34535481  4.64630434  4.75659347 
H  6.30144514  8.85709351  5.10708541 
H  3.63553937  8.69226515  4.98100854 
N  7.86443279  6.54270045  5.16165667 
H  8.35786765  6.03061862  6.02990572 
H  8.32098797  6.01377774  4.26918958 
N  2.04330918  6.67663065  5.06595086 
H  1.46871256  5.75578236  4.87865864 
H  1.57754172  7.07788545  6.09082015 








