%oldchk=../GS_OLD/geometry.chk
%chk=geometry.chk
%nprocshared=4
%mem=5GB

# WB97XD/6-311G SCF=XQC FORCE nosym pop=full guess=read

MD Step 999

0 1
C  -0.33690068  -0.58252897  0.00416536 
H  0.23314405  -1.52532367  -0.00605500 
H  -1.42366390  -0.57523432  -0.00667370 
C  0.33241473  0.57627557  0.00275111 
H  -0.14375215  1.56769670  -0.00914907 
H  1.43973262  0.65938595  -0.00853883 








