%oldchk=../GS_OLD/geometry.chk
%chk=geometry.chk
%nprocshared=4
%mem=5GB

# WB97XD/6-311G SCF=XQC FORCE nosym pop=full guess=read

MD Step 1000

0 1
C  -0.33605728  -0.58080973  0.00466166 
H  0.21572215  -1.53308125  -0.01161106 
H  -1.42073155  -0.59535938  -0.01195709 
C  0.33399821  0.57925266  0.00409361 
H  -0.16350358  1.56193931  -0.01397873 
H  1.44628461  0.63830260  -0.01353125 








