%oldchk=../GS_OLD/geometry.chk
%chk=geometry.chk
%nprocshared=4
%mem=5GB

# WB97XD/6-311G SCF=XQC FORCE nosym pop=full guess=read

MD Step 999

0 1
C  -0.33612568  -0.58132713  0.00589366 
H  0.21271326  -1.52610266  -0.02060784 
H  -1.41617844  -0.59133256  -0.02113902 
C  0.33219959  0.57626036  0.00459014 
H  -0.16326757  1.56952709  -0.02365528 
H  1.45017449  0.64493986  -0.02286144 








