%oldchk=../GS_OLD/geometry.chk
%chk=geometry.chk
%nprocshared=4
%mem=5GB

# WB97XD/6-311G SCF=XQC FORCE nosym pop=full guess=read

MD Step 999

0 1
C  -0.33707051  -0.58361585  0.00647286 
H  0.22450922  -1.52135675  -0.02129574 
H  -1.42141274  -0.57698001  -0.02164458 
C  0.33264348  0.57604753  0.00426506 
H  -0.15466197  1.57178039  -0.02387855 
H  1.44204013  0.65446993  -0.02340251 








