%oldchk=../GS_OLD/geometry.chk
%chk=geometry.chk
%nprocshared=24
%mem=5GB

# WB97XD/6-311G SCF=XQC FORCE nosym pop=full guess=read

MD Step 1000

0 1
C  -0.33199648  -0.57468216  0.00317343 
H  0.20464769  -1.53819978  -0.00104939 
H  -1.42267189  -0.60032584  -0.00242984 
C  0.33114641  0.57379284  0.00167242 
H  -0.16013396  1.55211091  -0.00465438 
H  1.43440688  0.64312849  -0.00350347 








