%oldchk=../GS_OLD/geometry.chk
%chk=geometry.chk
%nprocshared=4
%mem=5GB

# WB97XD/6-311G SCF=XQC FORCE nosym pop=full guess=read

MD Step 999

0 1
C  -0.33696360  -0.58273487  0.00524347 
H  0.22447355  -1.52446901  -0.01488738 
H  -1.41948032  -0.57863006  -0.01513946 
C  0.33224455  0.57590701  0.00358442 
H  -0.15545175  1.57069511  -0.01723818 
H  1.44783314  0.65490381  -0.01679332 








