%oldchk=../GS_OLD/geometry.chk
%chk=geometry.chk
%nprocshared=4
%mem=5GB

# WB97XD/6-311G SCF=XQC FORCE nosym pop=full guess=read

MD Step 999

0 1
C  -0.33630221  -0.58113187  0.00571933 
H  0.21644704  -1.52952315  -0.01843976 
H  -1.41803578  -0.58938135  -0.01881684 
C  0.33219259  0.57629737  0.00368650 
H  -0.16209669  1.56720880  -0.01965945 
H  1.44851860  0.64515683  -0.01929408 








