%oldchk=../GS_OLD/geometry.chk
%chk=geometry.chk
%nprocshared=4
%mem=5GB

# WB97XD/6-311G SCF=XQC FORCE nosym pop=full guess=read

MD Step 999

0 1
C  -0.33654985  -0.58226938  0.00769694 
H  0.22271175  -1.52117103  -0.02633625 
H  -1.42121062  -0.58542303  -0.02819341 
C  0.33245280  0.57640463  0.00528400 
H  -0.15404011  1.56843480  -0.03123836 
H  1.44096014  0.64764276  -0.02930514 








