%oldchk=../GS_OLD/geometry.chk
%chk=geometry.chk
%nprocshared=4
%mem=5GB

# WB97XD/6-311G SCF=XQC FORCE nosym pop=full guess=read

MD Step 1000

0 1
C  -0.33753898  -0.58416881  0.00779624 
H  0.23281250  -1.52127326  -0.02525550 
H  -1.42537678  -0.57258018  -0.02639453 
C  0.33302202  0.57665332  0.00493698 
H  -0.14900235  1.56967538  -0.02898089 
H  1.43863341  0.65696993  -0.02785291 








