%oldchk=../GS_OLD/geometry.chk
%chk=geometry.chk
%nprocshared=4
%mem=5GB

# WB97XD/6-311G SCF=XQC FORCE nosym pop=full guess=read

MD Step 999

0 1
C  -0.33574127  -0.57992306  0.00809285 
H  0.21249332  -1.52818434  -0.02988933 
H  -1.41693513  -0.60071129  -0.03259351 
C  0.33239611  0.57707175  0.00628196 
H  -0.16493556  1.56937681  -0.03503963 
H  1.45087407  0.63512708  -0.03212206 








