%oldchk=../GS_OLD/geometry.chk
%chk=geometry.chk
%nprocshared=4
%mem=5GB

# WB97XD/6-311G SCF=XQC FORCE nosym pop=full guess=read

MD Step 1000

0 1
C  -0.33543732  -0.58016919  0.00709035 
H  0.21180019  -1.53514661  -0.02629254 
H  -1.42106524  -0.59474848  -0.02685497 
C  0.33381989  0.57862617  0.00633391 
H  -0.16683798  1.55824270  -0.02965457 
H  1.44327725  0.63792720  -0.02926171 








