%oldchk=../GS_OLD/geometry.chk
%chk=geometry.chk
%nprocshared=4
%mem=5GB

# WB97XD/6-311G SCF=XQC FORCE nosym pop=full guess=read

MD Step 999

0 1
C  -0.33671441  -0.58222910  0.00670401 
H  0.22655977  -1.52158252  -0.02067409 
H  -1.41951429  -0.58123319  -0.02221173 
C  0.33196750  0.57581687  0.00486501 
H  -0.14890156  1.57067681  -0.02510394 
H  1.44473203  0.65485823  -0.02352895 








