%oldchk=../GS_OLD/geometry.chk
%chk=geometry.chk
%nprocshared=4
%mem=5GB

# WB97XD/6-311G SCF=XQC FORCE nosym pop=full guess=read

MD Step 999

0 1
C  -0.33645601  -0.58160545  0.00753489 
H  0.22670724  -1.52508582  -0.02505678 
H  -1.42329619  -0.58568869  -0.02707783 
C  0.33193212  0.57601667  0.00502166 
H  -0.15295386  1.57128415  -0.02921178 
H  1.44484533  0.64746690  -0.02689381 








