%oldchk=../GS_OLD/geometry.chk
%chk=geometry.chk
%nprocshared=4
%mem=5GB

# WB97XD/6-311G SCF=XQC FORCE nosym pop=full guess=read

MD Step 999

0 1
C  -0.33603296  -0.58055095  0.00756370 
H  0.21960359  -1.53458124  -0.02881928 
H  -1.42328631  -0.58907960  -0.02903914 
C  0.33277336  0.57703896  0.00576458 
H  -0.15685763  1.55947247  -0.03094102 
H  1.43889549  0.64555135  -0.03050554 








