%oldchk=../GS_OLD/geometry.chk
%chk=geometry.chk
%nprocshared=4
%mem=5GB

# WB97XD/6-311G SCF=XQC FORCE nosym pop=full guess=read

MD Step 1000

0 1
C  -0.33701341  -0.58282752  0.00669559 
H  0.22690242  -1.52354848  -0.02022588 
H  -1.41921654  -0.57705708  -0.02095358 
C  0.33236197  0.57634573  0.00444689 
H  -0.15129204  1.56692782  -0.02394707 
H  1.44336848  0.65524795  -0.02329827 








