%chk=geometry.chk
%nprocshared=24
%mem=5GB

# WB97XD/6-311++G** nosymm iop(2/12=3,3/33=1) guess=only pop=full

MD Step 2

0 1
C  -0.33805766  -0.58792696  -0.00039402 
H  0.19795126  -1.51300712  0.00234672 
H  -1.40547021  -0.58516149  0.00235065 
C  0.33726924  0.58713819  -0.00039486 
H  -0.19325397  1.51770765  0.00234952 
H  1.41016785  0.58986000  0.00235344 
C  -0.33701235  -0.58693592  0.00072688 
H  0.20204464  -1.50966191  0.00620281 
H  -1.40221711  -0.58137728  0.00621080 
C  0.33847282  0.58839289  0.00072523 
H  -0.18962328  1.52203606  0.00620827 
H  1.41451752  0.59377405  0.00621607 








