%oldchk=../GS_OLD/geometry.chk
%chk=geometry.chk
%nprocshared=4
%mem=5GB

# WB97XD/6-311G SCF=XQC FORCE nosym pop=full guess=read

MD Step 1000

0 1
C  -0.33565792  -0.58151016  0.00782670 
H  0.21081545  -1.53235439  -0.02961764 
H  -1.42053870  -0.58415521  -0.02969398 
C  0.33350015  0.57689698  0.00570967 
H  -0.16849763  1.56261195  -0.03096977 
H  1.44427120  0.64921102  -0.03067943 








