%oldchk=../GS_OLD/geometry.chk
%chk=geometry.chk
%nprocshared=4
%mem=5GB

# WB97XD/6-311G SCF=XQC FORCE nosym pop=full guess=read

MD Step 999

0 1
C  -0.33550185  -0.58068057  0.00773754 
H  0.21151476  -1.52948652  -0.02996130 
H  -1.42021391  -0.59321836  -0.03111380 
C  0.33276070  0.57670929  0.00657649 
H  -0.16435330  1.56788565  -0.03451134 
H  1.44754300  0.64396389  -0.03316940 








