%oldchk=../GS_OLD/geometry.chk
%chk=geometry.chk
%nprocshared=4
%mem=5GB

# WB97XD/6-311G SCF=XQC FORCE nosym pop=full guess=read

MD Step 1000

0 1
C  -0.33622682  -0.58153612  0.00656814 
H  0.21766308  -1.53065361  -0.02384662 
H  -1.42383631  -0.59119290  -0.02507877 
C  0.33319390  0.57804413  0.00508998 
H  -0.15920793  1.55954447  -0.02668161 
H  1.43941719  0.64180724  -0.02540936 








