%oldchk=../GS_OLD/geometry.chk
%chk=geometry.chk
%nprocshared=4
%mem=5GB

# WB97XD/6-311G SCF=XQC FORCE nosym pop=full guess=read

MD Step 999

0 1
C  -0.33379704  -0.57846768  0.00789662 
H  0.19059042  -1.53912434  -0.03296286 
H  -1.41698374  -0.60383143  -0.03337088 
C  0.33373881  0.57739583  0.00652803 
H  -0.18210825  1.55739693  -0.03467580 
H  1.44595386  0.63508907  -0.03411939 








